data/ENWL/enwl_4wire/network_13/Feeder_4/Loads.txt
! Imported from Loads.txt, with modified neutral terminal
! ----------------------------------------------------------------------------
New Load.LOAD1 Phases=1 Bus1=87.1.4 kV=0.23 kW=1.968  PF=0.95
New Load.LOAD2 Phases=1 Bus1=492.2.4 kV=0.23 kW=0.306  PF=0.95
New Load.LOAD3 Phases=1 Bus1=493.3.4 kV=0.23 kW=2.94  PF=0.95
New Load.LOAD4 Phases=1 Bus1=494.1.4 kV=0.23 kW=0.324  PF=0.95
New Load.LOAD5 Phases=1 Bus1=495.2.4 kV=0.23 kW=1.332  PF=0.95
New Load.LOAD6 Phases=1 Bus1=496.3.4 kV=0.23 kW=3.0540000000000003  PF=0.95
New Load.LOAD7 Phases=1 Bus1=497.1.4 kV=0.23 kW=2.0580000000000003  PF=0.95
New Load.LOAD8 Phases=1 Bus1=498.2.4 kV=0.23 kW=0.29400000000000004  PF=0.95
New Load.LOAD9 Phases=1 Bus1=499.3.4 kV=0.23 kW=0.312  PF=0.95
New Load.LOAD10 Phases=1 Bus1=500.1.4 kV=0.23 kW=0.27  PF=0.95
New Load.LOAD11 Phases=1 Bus1=501.2.4 kV=0.23 kW=0.33  PF=0.95
New Load.LOAD12 Phases=1 Bus1=502.3.4 kV=0.23 kW=0.33  PF=0.95
New Load.LOAD13 Phases=1 Bus1=503.1.4 kV=0.23 kW=0.246  PF=0.95
New Load.LOAD14 Phases=1 Bus1=504.2.4 kV=0.23 kW=2.04  PF=0.95
New Load.LOAD15 Phases=1 Bus1=505.3.4 kV=0.23 kW=0.8280000000000001  PF=0.95
New Load.LOAD16 Phases=1 Bus1=506.1.4 kV=0.23 kW=0.11399999999999999  PF=0.95
New Load.LOAD17 Phases=1 Bus1=507.2.4 kV=0.23 kW=0.28800000000000003  PF=0.95
New Load.LOAD18 Phases=1 Bus1=508.3.4 kV=0.23 kW=0.324  PF=0.95
New Load.LOAD19 Phases=1 Bus1=509.1.4 kV=0.23 kW=1.944  PF=0.95
New Load.LOAD20 Phases=1 Bus1=510.2.4 kV=0.23 kW=0.264  PF=0.95
New Load.LOAD21 Phases=1 Bus1=511.3.4 kV=0.23 kW=0.336  PF=0.95
New Load.LOAD22 Phases=1 Bus1=512.1.4 kV=0.23 kW=0.966  PF=0.95
New Load.LOAD23 Phases=1 Bus1=513.2.4 kV=0.23 kW=0.246  PF=0.95
New Load.LOAD24 Phases=1 Bus1=514.3.4 kV=0.23 kW=1.956  PF=0.95
New Load.LOAD25 Phases=1 Bus1=515.1.4 kV=0.23 kW=0.29400000000000004  PF=0.95
New Load.LOAD26 Phases=1 Bus1=516.2.4 kV=0.23 kW=0.336  PF=0.95
New Load.LOAD27 Phases=1 Bus1=517.3.4 kV=0.23 kW=0.27  PF=0.95
New Load.LOAD28 Phases=1 Bus1=518.1.4 kV=0.23 kW=0.276  PF=0.95
New Load.LOAD29 Phases=1 Bus1=519.2.4 kV=0.23 kW=0.34800000000000003  PF=0.95
New Load.LOAD30 Phases=1 Bus1=525.2.4 kV=0.23 kW=0.264  PF=0.95
New Load.LOAD31 Phases=1 Bus1=526.2.4 kV=0.23 kW=0.28200000000000003  PF=0.95
New Load.LOAD32 Phases=1 Bus1=527.2.4 kV=0.23 kW=0.342  PF=0.95
New Load.LOAD33 Phases=1 Bus1=528.2.4 kV=0.23 kW=0.28800000000000003  PF=0.95
New Load.LOAD34 Phases=1 Bus1=529.2.4 kV=0.23 kW=2.748  PF=0.95
New Load.LOAD35 Phases=1 Bus1=530.2.4 kV=0.23 kW=0.9612  PF=0.95
New Load.LOAD36 Phases=1 Bus1=531.2.4 kV=0.23 kW=0.318  PF=0.95
New Load.LOAD37 Phases=1 Bus1=532.2.4 kV=0.23 kW=0.28200000000000003  PF=0.95
New Load.LOAD38 Phases=1 Bus1=533.2.4 kV=0.23 kW=0.276  PF=0.95
New Load.LOAD39 Phases=1 Bus1=534.2.4 kV=0.23 kW=9.738  PF=0.95
New Load.LOAD40 Phases=1 Bus1=535.2.4 kV=0.23 kW=0.28800000000000003  PF=0.95
New Load.LOAD41 Phases=1 Bus1=536.2.4 kV=0.23 kW=0.28800000000000003  PF=0.95
New Load.LOAD42 Phases=1 Bus1=537.2.4 kV=0.23 kW=0.15000000000000002  PF=0.95
New Load.LOAD43 Phases=1 Bus1=538.2.4 kV=0.23 kW=0.318  PF=0.95
New Load.LOAD44 Phases=1 Bus1=539.2.4 kV=0.23 kW=1.8719999999999999  PF=0.95
New Load.LOAD45 Phases=1 Bus1=540.2.4 kV=0.23 kW=5.586  PF=0.95
New Load.LOAD46 Phases=1 Bus1=541.2.4 kV=0.23 kW=0.336  PF=0.95
New Load.LOAD47 Phases=1 Bus1=542.2.4 kV=0.23 kW=0.354  PF=0.95
New Load.LOAD48 Phases=1 Bus1=543.2.4 kV=0.23 kW=0.21599999999999997  PF=0.95
New Load.LOAD49 Phases=1 Bus1=544.2.4 kV=0.23 kW=0.324  PF=0.95
New Load.LOAD50 Phases=1 Bus1=545.2.4 kV=0.23 kW=0.318  PF=0.95
New Load.LOAD51 Phases=1 Bus1=546.2.4 kV=0.23 kW=0.33  PF=0.95
New Load.LOAD52 Phases=1 Bus1=547.2.4 kV=0.23 kW=0.22799999999999998  PF=0.95
New Load.LOAD53 Phases=1 Bus1=548.2.4 kV=0.23 kW=0.9179999999999999  PF=0.95
New Load.LOAD54 Phases=1 Bus1=549.2.4 kV=0.23 kW=0.28800000000000003  PF=0.95
New Load.LOAD55 Phases=1 Bus1=550.2.4 kV=0.23 kW=0.4356  PF=0.95
New Load.LOAD56 Phases=1 Bus1=551.2.4 kV=0.23 kW=0.402  PF=0.95
New Load.LOAD57 Phases=1 Bus1=552.2.4 kV=0.23 kW=0.30000000000000004  PF=0.95
New Load.LOAD58 Phases=1 Bus1=553.2.4 kV=0.23 kW=0.354  PF=0.95
New Load.LOAD59 Phases=1 Bus1=554.2.4 kV=0.23 kW=0.264  PF=0.95
New Load.LOAD60 Phases=1 Bus1=555.2.4 kV=0.23 kW=0.30000000000000004  PF=0.95
New Load.LOAD61 Phases=1 Bus1=556.2.4 kV=0.23 kW=0.28800000000000003  PF=0.95
New Load.LOAD62 Phases=1 Bus1=557.2.4 kV=0.23 kW=1.476  PF=0.95
New Load.LOAD63 Phases=1 Bus1=558.2.4 kV=0.23 kW=1.242  PF=0.95
New Load.LOAD64 Phases=1 Bus1=559.2.4 kV=0.23 kW=1.536  PF=0.95
New Load.LOAD65 Phases=1 Bus1=560.2.4 kV=0.23 kW=0.30000000000000004  PF=0.95
New Load.LOAD66 Phases=1 Bus1=561.2.4 kV=0.23 kW=0.306  PF=0.95
New Load.LOAD67 Phases=1 Bus1=562.2.4 kV=0.23 kW=0.318  PF=0.95
New Load.LOAD68 Phases=1 Bus1=563.2.4 kV=0.23 kW=0.33  PF=0.95
New Load.LOAD69 Phases=1 Bus1=564.2.4 kV=0.23 kW=0.276  PF=0.95
New Load.LOAD70 Phases=1 Bus1=565.2.4 kV=0.23 kW=0.246  PF=0.95
New Load.LOAD71 Phases=1 Bus1=566.2.4 kV=0.23 kW=0.30000000000000004  PF=0.95
New Load.LOAD72 Phases=1 Bus1=567.2.4 kV=0.23 kW=0.264  PF=0.95
New Load.LOAD73 Phases=1 Bus1=568.2.4 kV=0.23 kW=1.9056  PF=0.95
New Load.LOAD74 Phases=1 Bus1=569.2.4 kV=0.23 kW=0.306  PF=0.95
New Load.LOAD75 Phases=1 Bus1=570.2.4 kV=0.23 kW=6.7476  PF=0.95
New Load.LOAD76 Phases=1 Bus1=571.2.4 kV=0.23 kW=0.21599999999999997  PF=0.95
New Load.LOAD77 Phases=1 Bus1=572.2.4 kV=0.23 kW=0.34800000000000003  PF=0.95
New Load.LOAD78 Phases=1 Bus1=573.2.4 kV=0.23 kW=2.9939999999999998  PF=0.95
New Load.LOAD79 Phases=1 Bus1=574.2.4 kV=0.23 kW=0.336  PF=0.95
New Load.LOAD80 Phases=1 Bus1=575.2.4 kV=0.23 kW=0.28800000000000003  PF=0.95
New Load.LOAD81 Phases=1 Bus1=576.2.4 kV=0.23 kW=0.7452000000000001  PF=0.95
New Load.LOAD82 Phases=1 Bus1=577.2.4 kV=0.23 kW=1.158  PF=0.95
New Load.LOAD83 Phases=1 Bus1=578.2.4 kV=0.23 kW=1.0379999999999998  PF=0.95
New Load.LOAD84 Phases=1 Bus1=579.2.4 kV=0.23 kW=0.29400000000000004  PF=0.95
New Load.LOAD85 Phases=1 Bus1=580.2.4 kV=0.23 kW=0.318  PF=0.95
New Load.LOAD86 Phases=1 Bus1=581.2.4 kV=0.23 kW=0.28200000000000003  PF=0.95
New Load.LOAD87 Phases=1 Bus1=582.2.4 kV=0.23 kW=0.318  PF=0.95
New Load.LOAD88 Phases=1 Bus1=583.2.4 kV=0.23 kW=0.4644  PF=0.95
New Load.LOAD89 Phases=1 Bus1=584.2.4 kV=0.23 kW=0.29400000000000004  PF=0.95
New Load.LOAD90 Phases=1 Bus1=585.2.4 kV=0.23 kW=1.416  PF=0.95
New Load.LOAD91 Phases=1 Bus1=586.2.4 kV=0.23 kW=0.342  PF=0.95
New Load.LOAD92 Phases=1 Bus1=587.2.4 kV=0.23 kW=1.9740000000000002  PF=0.95
New Load.LOAD93 Phases=1 Bus1=588.2.4 kV=0.23 kW=0.28800000000000003  PF=0.95
New Load.LOAD94 Phases=1 Bus1=589.2.4 kV=0.23 kW=0.336  PF=0.95
New Load.LOAD95 Phases=1 Bus1=590.2.4 kV=0.23 kW=0.306  PF=0.95
New Load.LOAD96 Phases=1 Bus1=591.2.4 kV=0.23 kW=0.33  PF=0.95
New Load.LOAD97 Phases=1 Bus1=592.2.4 kV=0.23 kW=0.28800000000000003  PF=0.95
New Load.LOAD98 Phases=1 Bus1=593.2.4 kV=0.23 kW=0.312  PF=0.95
New Load.LOAD99 Phases=1 Bus1=594.2.4 kV=0.23 kW=0.318  PF=0.95
New Load.LOAD100 Phases=1 Bus1=595.2.4 kV=0.23 kW=0.276  PF=0.95
New Load.LOAD101 Phases=1 Bus1=596.2.4 kV=0.23 kW=1.968  PF=0.95
New Load.LOAD102 Phases=1 Bus1=597.2.4 kV=0.23 kW=0.306  PF=0.95
New Load.LOAD103 Phases=1 Bus1=598.2.4 kV=0.23 kW=2.94  PF=0.95
New Load.LOAD104 Phases=1 Bus1=599.2.4 kV=0.23 kW=0.324  PF=0.95
New Load.LOAD105 Phases=1 Bus1=600.2.4 kV=0.23 kW=1.332  PF=0.95
New Load.LOAD106 Phases=1 Bus1=601.2.4 kV=0.23 kW=3.0540000000000003  PF=0.95
New Load.LOAD107 Phases=1 Bus1=602.2.4 kV=0.23 kW=2.0580000000000003  PF=0.95
New Load.LOAD108 Phases=1 Bus1=603.2.4 kV=0.23 kW=0.29400000000000004  PF=0.95
New Load.LOAD109 Phases=1 Bus1=604.2.4 kV=0.23 kW=0.312  PF=0.95
New Load.LOAD110 Phases=1 Bus1=605.2.4 kV=0.23 kW=0.27  PF=0.95
New Load.LOAD111 Phases=1 Bus1=606.2.4 kV=0.23 kW=0.33  PF=0.95
New Load.LOAD112 Phases=1 Bus1=607.2.4 kV=0.23 kW=0.33  PF=0.95
New Load.LOAD113 Phases=1 Bus1=608.2.4 kV=0.23 kW=0.246  PF=0.95
New Load.LOAD114 Phases=1 Bus1=609.2.4 kV=0.23 kW=2.04  PF=0.95
New Load.LOAD115 Phases=1 Bus1=610.2.4 kV=0.23 kW=0.8280000000000001  PF=0.95
New Load.LOAD116 Phases=1 Bus1=611.2.4 kV=0.23 kW=0.11399999999999999  PF=0.95
New Load.LOAD117 Phases=1 Bus1=612.2.4 kV=0.23 kW=0.28800000000000003  PF=0.95
New Load.LOAD118 Phases=1 Bus1=613.2.4 kV=0.23 kW=0.324  PF=0.95
New Load.LOAD119 Phases=1 Bus1=614.2.4 kV=0.23 kW=1.944  PF=0.95
New Load.LOAD120 Phases=1 Bus1=615.2.4 kV=0.23 kW=0.264  PF=0.95
New Load.LOAD121 Phases=1 Bus1=616.2.4 kV=0.23 kW=0.336  PF=0.95
New Load.LOAD122 Phases=1 Bus1=617.2.4 kV=0.23 kW=0.966  PF=0.95
New Load.LOAD123 Phases=1 Bus1=618.2.4 kV=0.23 kW=0.246  PF=0.95
New Load.LOAD124 Phases=1 Bus1=619.2.4 kV=0.23 kW=1.956  PF=0.95
New Load.LOAD125 Phases=1 Bus1=620.2.4 kV=0.23 kW=0.29400000000000004  PF=0.95
New Load.LOAD126 Phases=1 Bus1=621.2.4 kV=0.23 kW=0.336  PF=0.95
New Load.LOAD127 Phases=1 Bus1=622.2.4 kV=0.23 kW=0.27  PF=0.95
New Load.LOAD128 Phases=1 Bus1=623.2.4 kV=0.23 kW=0.276  PF=0.95
New Load.LOAD129 Phases=1 Bus1=624.2.4 kV=0.23 kW=0.34800000000000003  PF=0.95
New Load.LOAD130 Phases=1 Bus1=625.2.4 kV=0.23 kW=0.264  PF=0.95
New Load.LOAD131 Phases=1 Bus1=626.2.4 kV=0.23 kW=0.28200000000000003  PF=0.95
New Load.LOAD132 Phases=1 Bus1=627.2.4 kV=0.23 kW=0.342  PF=0.95
New Load.LOAD133 Phases=1 Bus1=628.2.4 kV=0.23 kW=0.28800000000000003  PF=0.95
New Load.LOAD134 Phases=1 Bus1=629.2.4 kV=0.23 kW=2.748  PF=0.95
New Load.LOAD135 Phases=1 Bus1=630.2.4 kV=0.23 kW=0.9612  PF=0.95
New Load.LOAD136 Phases=1 Bus1=631.2.4 kV=0.23 kW=0.318  PF=0.95
New Load.LOAD137 Phases=1 Bus1=632.2.4 kV=0.23 kW=0.28200000000000003  PF=0.95
New Load.LOAD138 Phases=1 Bus1=633.2.4 kV=0.23 kW=0.276  PF=0.95
New Load.LOAD139 Phases=1 Bus1=634.2.4 kV=0.23 kW=9.738  PF=0.95
New Load.LOAD140 Phases=1 Bus1=635.2.4 kV=0.23 kW=0.28800000000000003  PF=0.95
New Load.LOAD141 Phases=1 Bus1=636.2.4 kV=0.23 kW=0.28800000000000003  PF=0.95
New Load.LOAD142 Phases=1 Bus1=637.2.4 kV=0.23 kW=0.15000000000000002  PF=0.95
New Load.LOAD143 Phases=1 Bus1=638.2.4 kV=0.23 kW=0.318  PF=0.95
New Load.LOAD144 Phases=1 Bus1=639.2.4 kV=0.23 kW=1.8719999999999999  PF=0.95
New Load.LOAD145 Phases=1 Bus1=640.2.4 kV=0.23 kW=5.586  PF=0.95
New Load.LOAD146 Phases=1 Bus1=641.2.4 kV=0.23 kW=0.336  PF=0.95
New Load.LOAD147 Phases=1 Bus1=642.2.4 kV=0.23 kW=0.354  PF=0.95
New Load.LOAD148 Phases=1 Bus1=643.2.4 kV=0.23 kW=0.21599999999999997  PF=0.95
New Load.LOAD149 Phases=1 Bus1=644.2.4 kV=0.23 kW=0.324  PF=0.95
New Load.LOAD150 Phases=1 Bus1=645.2.4 kV=0.23 kW=0.318  PF=0.95
New Load.LOAD151 Phases=1 Bus1=646.2.4 kV=0.23 kW=0.33  PF=0.95
New Load.LOAD152 Phases=1 Bus1=647.2.4 kV=0.23 kW=0.22799999999999998  PF=0.95
New Load.LOAD153 Phases=1 Bus1=648.2.4 kV=0.23 kW=0.9179999999999999  PF=0.95
New Load.LOAD154 Phases=1 Bus1=649.2.4 kV=0.23 kW=0.28800000000000003  PF=0.95
New Load.LOAD155 Phases=1 Bus1=650.2.4 kV=0.23 kW=0.4356  PF=0.95
New Load.LOAD156 Phases=1 Bus1=651.2.4 kV=0.23 kW=0.402  PF=0.95
New Load.LOAD157 Phases=1 Bus1=652.2.4 kV=0.23 kW=0.30000000000000004  PF=0.95
New Load.LOAD158 Phases=1 Bus1=653.2.4 kV=0.23 kW=0.354  PF=0.95
New Load.LOAD159 Phases=1 Bus1=654.2.4 kV=0.23 kW=0.264  PF=0.95
New Load.LOAD160 Phases=1 Bus1=655.2.4 kV=0.23 kW=0.30000000000000004  PF=0.95
New Load.LOAD161 Phases=1 Bus1=656.2.4 kV=0.23 kW=0.28800000000000003  PF=0.95
New Load.LOAD162 Phases=1 Bus1=657.2.4 kV=0.23 kW=1.476  PF=0.95
New Load.LOAD163 Phases=1 Bus1=658.2.4 kV=0.23 kW=1.242  PF=0.95
New Load.LOAD164 Phases=1 Bus1=659.2.4 kV=0.23 kW=1.536  PF=0.95
New Load.LOAD165 Phases=1 Bus1=660.2.4 kV=0.23 kW=0.30000000000000004  PF=0.95
New Load.LOAD166 Phases=1 Bus1=661.2.4 kV=0.23 kW=0.306  PF=0.95
New Load.LOAD167 Phases=1 Bus1=662.2.4 kV=0.23 kW=0.318  PF=0.95
New Load.LOAD168 Phases=1 Bus1=663.2.4 kV=0.23 kW=0.33  PF=0.95
New Load.LOAD169 Phases=1 Bus1=664.2.4 kV=0.23 kW=0.276  PF=0.95
New Load.LOAD170 Phases=1 Bus1=665.2.4 kV=0.23 kW=0.246  PF=0.95
New Load.LOAD171 Phases=1 Bus1=666.2.4 kV=0.23 kW=0.30000000000000004  PF=0.95
New Load.LOAD172 Phases=1 Bus1=667.2.4 kV=0.23 kW=0.264  PF=0.95
New Load.LOAD173 Phases=1 Bus1=674.2.4 kV=0.23 kW=1.9056  PF=0.95
! ----------------------------------------------------------------------------